L6/1726531/_ATERRAMENTO.dss
! Aterramento do neutro (no 4) dos secundarios de BT
! Reactor de 0.5 ohm entre o no 4 e a terra (no 0).
New Reactor.NEUTRO_node_1139009368 phases=1 bus1=node_1139009368.4 bus2=node_1139009368.0 R=0.5 X=0
New Reactor.NEUTRO_node_1168012141 phases=1 bus1=node_1168012141.4 bus2=node_1168012141.0 R=0.5 X=0
New Reactor.NEUTRO_node_1177759436 phases=1 bus1=node_1177759436.4 bus2=node_1177759436.0 R=0.5 X=0
New Reactor.NEUTRO_node_1184126350 phases=1 bus1=node_1184126350.4 bus2=node_1184126350.0 R=0.5 X=0
New Reactor.NEUTRO_node_1184302570 phases=1 bus1=node_1184302570.4 bus2=node_1184302570.0 R=0.5 X=0
New Reactor.NEUTRO_node_1192164853 phases=1 bus1=node_1192164853.4 bus2=node_1192164853.0 R=0.5 X=0
New Reactor.NEUTRO_node_1210466058 phases=1 bus1=node_1210466058.4 bus2=node_1210466058.0 R=0.5 X=0
New Reactor.NEUTRO_node_1214109239 phases=1 bus1=node_1214109239.4 bus2=node_1214109239.0 R=0.5 X=0
New Reactor.NEUTRO_node_1214681271 phases=1 bus1=node_1214681271.4 bus2=node_1214681271.0 R=0.5 X=0
New Reactor.NEUTRO_node_1214681456 phases=1 bus1=node_1214681456.4 bus2=node_1214681456.0 R=0.5 X=0
New Reactor.NEUTRO_node_1214682051 phases=1 bus1=node_1214682051.4 bus2=node_1214682051.0 R=0.5 X=0
New Reactor.NEUTRO_node_1224571700 phases=1 bus1=node_1224571700.4 bus2=node_1224571700.0 R=0.5 X=0
New Reactor.NEUTRO_node_1247047724 phases=1 bus1=node_1247047724.4 bus2=node_1247047724.0 R=0.5 X=0
New Reactor.NEUTRO_node_1250126085 phases=1 bus1=node_1250126085.4 bus2=node_1250126085.0 R=0.5 X=0
New Reactor.NEUTRO_node_1265166998 phases=1 bus1=node_1265166998.4 bus2=node_1265166998.0 R=0.5 X=0
New Reactor.NEUTRO_node_1266262042 phases=1 bus1=node_1266262042.4 bus2=node_1266262042.0 R=0.5 X=0
New Reactor.NEUTRO_node_1279141546 phases=1 bus1=node_1279141546.4 bus2=node_1279141546.0 R=0.5 X=0
New Reactor.NEUTRO_node_1285683749 phases=1 bus1=node_1285683749.4 bus2=node_1285683749.0 R=0.5 X=0
New Reactor.NEUTRO_node_1309215443 phases=1 bus1=node_1309215443.4 bus2=node_1309215443.0 R=0.5 X=0
New Reactor.NEUTRO_node_1344984136 phases=1 bus1=node_1344984136.4 bus2=node_1344984136.0 R=0.5 X=0
New Reactor.NEUTRO_node_1344984280 phases=1 bus1=node_1344984280.4 bus2=node_1344984280.0 R=0.5 X=0
New Reactor.NEUTRO_node_1380300250 phases=1 bus1=node_1380300250.4 bus2=node_1380300250.0 R=0.5 X=0
New Reactor.NEUTRO_node_1383871028 phases=1 bus1=node_1383871028.4 bus2=node_1383871028.0 R=0.5 X=0
New Reactor.NEUTRO_node_1383956478 phases=1 bus1=node_1383956478.4 bus2=node_1383956478.0 R=0.5 X=0
New Reactor.NEUTRO_node_1383956595 phases=1 bus1=node_1383956595.4 bus2=node_1383956595.0 R=0.5 X=0
New Reactor.NEUTRO_node_1387701287 phases=1 bus1=node_1387701287.4 bus2=node_1387701287.0 R=0.5 X=0
New Reactor.NEUTRO_node_1395962391 phases=1 bus1=node_1395962391.4 bus2=node_1395962391.0 R=0.5 X=0
New Reactor.NEUTRO_node_1397448787 phases=1 bus1=node_1397448787.4 bus2=node_1397448787.0 R=0.5 X=0
New Reactor.NEUTRO_node_1443647235 phases=1 bus1=node_1443647235.4 bus2=node_1443647235.0 R=0.5 X=0
New Reactor.NEUTRO_node_1452797751 phases=1 bus1=node_1452797751.4 bus2=node_1452797751.0 R=0.5 X=0
New Reactor.NEUTRO_node_1595053885 phases=1 bus1=node_1595053885.4 bus2=node_1595053885.0 R=0.5 X=0
New Reactor.NEUTRO_node_1617841907 phases=1 bus1=node_1617841907.4 bus2=node_1617841907.0 R=0.5 X=0
New Reactor.NEUTRO_node_1632235328 phases=1 bus1=node_1632235328.4 bus2=node_1632235328.0 R=0.5 X=0
New Reactor.NEUTRO_node_1633218672 phases=1 bus1=node_1633218672.4 bus2=node_1633218672.0 R=0.5 X=0
New Reactor.NEUTRO_node_1693838907 phases=1 bus1=node_1693838907.4 bus2=node_1693838907.0 R=0.5 X=0
New Reactor.NEUTRO_node_1702691740 phases=1 bus1=node_1702691740.4 bus2=node_1702691740.0 R=0.5 X=0
New Reactor.NEUTRO_node_1712163880 phases=1 bus1=node_1712163880.4 bus2=node_1712163880.0 R=0.5 X=0
New Reactor.NEUTRO_node_1712696403 phases=1 bus1=node_1712696403.4 bus2=node_1712696403.0 R=0.5 X=0
New Reactor.NEUTRO_node_1732968605 phases=1 bus1=node_1732968605.4 bus2=node_1732968605.0 R=0.5 X=0
New Reactor.NEUTRO_node_1755739335 phases=1 bus1=node_1755739335.4 bus2=node_1755739335.0 R=0.5 X=0
New Reactor.NEUTRO_node_1759264799 phases=1 bus1=node_1759264799.4 bus2=node_1759264799.0 R=0.5 X=0
New Reactor.NEUTRO_node_1761823948 phases=1 bus1=node_1761823948.4 bus2=node_1761823948.0 R=0.5 X=0
New Reactor.NEUTRO_node_1783002099 phases=1 bus1=node_1783002099.4 bus2=node_1783002099.0 R=0.5 X=0
New Reactor.NEUTRO_node_1785247816 phases=1 bus1=node_1785247816.4 bus2=node_1785247816.0 R=0.5 X=0
New Reactor.NEUTRO_node_1792500262 phases=1 bus1=node_1792500262.4 bus2=node_1792500262.0 R=0.5 X=0
New Reactor.NEUTRO_node_1854948793 phases=1 bus1=node_1854948793.4 bus2=node_1854948793.0 R=0.5 X=0
New Reactor.NEUTRO_node_1856588549 phases=1 bus1=node_1856588549.4 bus2=node_1856588549.0 R=0.5 X=0
New Reactor.NEUTRO_node_1892108187 phases=1 bus1=node_1892108187.4 bus2=node_1892108187.0 R=0.5 X=0
New Reactor.NEUTRO_node_1893666914 phases=1 bus1=node_1893666914.4 bus2=node_1893666914.0 R=0.5 X=0
New Reactor.NEUTRO_node_1904354874 phases=1 bus1=node_1904354874.4 bus2=node_1904354874.0 R=0.5 X=0
New Reactor.NEUTRO_node_1948406987 phases=1 bus1=node_1948406987.4 bus2=node_1948406987.0 R=0.5 X=0
New Reactor.NEUTRO_node_1948407180 phases=1 bus1=node_1948407180.4 bus2=node_1948407180.0 R=0.5 X=0
New Reactor.NEUTRO_node_1963053829 phases=1 bus1=node_1963053829.4 bus2=node_1963053829.0 R=0.5 X=0
New Reactor.NEUTRO_node_1963238484 phases=1 bus1=node_1963238484.4 bus2=node_1963238484.0 R=0.5 X=0
New Reactor.NEUTRO_node_1963238485 phases=1 bus1=node_1963238485.4 bus2=node_1963238485.0 R=0.5 X=0
New Reactor.NEUTRO_node_1965192880 phases=1 bus1=node_1965192880.4 bus2=node_1965192880.0 R=0.5 X=0
New Reactor.NEUTRO_node_1965819006 phases=1 bus1=node_1965819006.4 bus2=node_1965819006.0 R=0.5 X=0
New Reactor.NEUTRO_node_1966725073 phases=1 bus1=node_1966725073.4 bus2=node_1966725073.0 R=0.5 X=0
New Reactor.NEUTRO_node_1974265320 phases=1 bus1=node_1974265320.4 bus2=node_1974265320.0 R=0.5 X=0
New Reactor.NEUTRO_node_1980766541 phases=1 bus1=node_1980766541.4 bus2=node_1980766541.0 R=0.5 X=0
New Reactor.NEUTRO_node_2003083225 phases=1 bus1=node_2003083225.4 bus2=node_2003083225.0 R=0.5 X=0
New Reactor.NEUTRO_node_2010997108 phases=1 bus1=node_2010997108.4 bus2=node_2010997108.0 R=0.5 X=0
New Reactor.NEUTRO_node_2018712631 phases=1 bus1=node_2018712631.4 bus2=node_2018712631.0 R=0.5 X=0
New Reactor.NEUTRO_node_2022586798 phases=1 bus1=node_2022586798.4 bus2=node_2022586798.0 R=0.5 X=0
New Reactor.NEUTRO_node_2030027297 phases=1 bus1=node_2030027297.4 bus2=node_2030027297.0 R=0.5 X=0
New Reactor.NEUTRO_node_2059261385 phases=1 bus1=node_2059261385.4 bus2=node_2059261385.0 R=0.5 X=0
New Reactor.NEUTRO_node_2059668982 phases=1 bus1=node_2059668982.4 bus2=node_2059668982.0 R=0.5 X=0
New Reactor.NEUTRO_node_2078463505 phases=1 bus1=node_2078463505.4 bus2=node_2078463505.0 R=0.5 X=0
New Reactor.NEUTRO_node_2120824281 phases=1 bus1=node_2120824281.4 bus2=node_2120824281.0 R=0.5 X=0
New Reactor.NEUTRO_node_2126440516 phases=1 bus1=node_2126440516.4 bus2=node_2126440516.0 R=0.5 X=0
New Reactor.NEUTRO_node_2154162606 phases=1 bus1=node_2154162606.4 bus2=node_2154162606.0 R=0.5 X=0
New Reactor.NEUTRO_node_2176010318 phases=1 bus1=node_2176010318.4 bus2=node_2176010318.0 R=0.5 X=0
New Reactor.NEUTRO_node_2176010849 phases=1 bus1=node_2176010849.4 bus2=node_2176010849.0 R=0.5 X=0
New Reactor.NEUTRO_node_2189128694 phases=1 bus1=node_2189128694.4 bus2=node_2189128694.0 R=0.5 X=0
New Reactor.NEUTRO_node_2196464396 phases=1 bus1=node_2196464396.4 bus2=node_2196464396.0 R=0.5 X=0
New Reactor.NEUTRO_node_2221673648 phases=1 bus1=node_2221673648.4 bus2=node_2221673648.0 R=0.5 X=0
New Reactor.NEUTRO_node_2335498802 phases=1 bus1=node_2335498802.4 bus2=node_2335498802.0 R=0.5 X=0
New Reactor.NEUTRO_node_2372284844 phases=1 bus1=node_2372284844.4 bus2=node_2372284844.0 R=0.5 X=0
New Reactor.NEUTRO_node_2373306696 phases=1 bus1=node_2373306696.4 bus2=node_2373306696.0 R=0.5 X=0
New Reactor.NEUTRO_node_2426870153 phases=1 bus1=node_2426870153.4 bus2=node_2426870153.0 R=0.5 X=0
New Reactor.NEUTRO_node_2427621502 phases=1 bus1=node_2427621502.4 bus2=node_2427621502.0 R=0.5 X=0
New Reactor.NEUTRO_node_2431100054 phases=1 bus1=node_2431100054.4 bus2=node_2431100054.0 R=0.5 X=0
New Reactor.NEUTRO_node_2432830403 phases=1 bus1=node_2432830403.4 bus2=node_2432830403.0 R=0.5 X=0
New Reactor.NEUTRO_node_2432830499 phases=1 bus1=node_2432830499.4 bus2=node_2432830499.0 R=0.5 X=0
New Reactor.NEUTRO_node_2447305638 phases=1 bus1=node_2447305638.4 bus2=node_2447305638.0 R=0.5 X=0
New Reactor.NEUTRO_node_2480684428 phases=1 bus1=node_2480684428.4 bus2=node_2480684428.0 R=0.5 X=0
New Reactor.NEUTRO_node_2489695869 phases=1 bus1=node_2489695869.4 bus2=node_2489695869.0 R=0.5 X=0
New Reactor.NEUTRO_node_2491387968 phases=1 bus1=node_2491387968.4 bus2=node_2491387968.0 R=0.5 X=0
New Reactor.NEUTRO_node_2498116951 phases=1 bus1=node_2498116951.4 bus2=node_2498116951.0 R=0.5 X=0
New Reactor.NEUTRO_node_2500792795 phases=1 bus1=node_2500792795.4 bus2=node_2500792795.0 R=0.5 X=0
New Reactor.NEUTRO_node_2507318188 phases=1 bus1=node_2507318188.4 bus2=node_2507318188.0 R=0.5 X=0
New Reactor.NEUTRO_node_2508185789 phases=1 bus1=node_2508185789.4 bus2=node_2508185789.0 R=0.5 X=0
New Reactor.NEUTRO_node_2517482593 phases=1 bus1=node_2517482593.4 bus2=node_2517482593.0 R=0.5 X=0
New Reactor.NEUTRO_node_2521114826 phases=1 bus1=node_2521114826.4 bus2=node_2521114826.0 R=0.5 X=0
New Reactor.NEUTRO_node_2534950728 phases=1 bus1=node_2534950728.4 bus2=node_2534950728.0 R=0.5 X=0
New Reactor.NEUTRO_node_2551104170 phases=1 bus1=node_2551104170.4 bus2=node_2551104170.0 R=0.5 X=0
New Reactor.NEUTRO_node_2555256406 phases=1 bus1=node_2555256406.4 bus2=node_2555256406.0 R=0.5 X=0
New Reactor.NEUTRO_node_2561887859 phases=1 bus1=node_2561887859.4 bus2=node_2561887859.0 R=0.5 X=0
New Reactor.NEUTRO_node_2568804003 phases=1 bus1=node_2568804003.4 bus2=node_2568804003.0 R=0.5 X=0
New Reactor.NEUTRO_node_2570754364 phases=1 bus1=node_2570754364.4 bus2=node_2570754364.0 R=0.5 X=0
New Reactor.NEUTRO_node_2571238699 phases=1 bus1=node_2571238699.4 bus2=node_2571238699.0 R=0.5 X=0
New Reactor.NEUTRO_node_2571530691 phases=1 bus1=node_2571530691.4 bus2=node_2571530691.0 R=0.5 X=0
New Reactor.NEUTRO_node_2585988615 phases=1 bus1=node_2585988615.4 bus2=node_2585988615.0 R=0.5 X=0
New Reactor.NEUTRO_node_2598746027 phases=1 bus1=node_2598746027.4 bus2=node_2598746027.0 R=0.5 X=0
New Reactor.NEUTRO_node_2629443883 phases=1 bus1=node_2629443883.4 bus2=node_2629443883.0 R=0.5 X=0
New Reactor.NEUTRO_node_2648410422 phases=1 bus1=node_2648410422.4 bus2=node_2648410422.0 R=0.5 X=0
New Reactor.NEUTRO_node_2679009443 phases=1 bus1=node_2679009443.4 bus2=node_2679009443.0 R=0.5 X=0
New Reactor.NEUTRO_node_2705791721 phases=1 bus1=node_2705791721.4 bus2=node_2705791721.0 R=0.5 X=0
New Reactor.NEUTRO_node_2739241538 phases=1 bus1=node_2739241538.4 bus2=node_2739241538.0 R=0.5 X=0
New Reactor.NEUTRO_node_2743672001 phases=1 bus1=node_2743672001.4 bus2=node_2743672001.0 R=0.5 X=0
New Reactor.NEUTRO_node_2758032015 phases=1 bus1=node_2758032015.4 bus2=node_2758032015.0 R=0.5 X=0
New Reactor.NEUTRO_node_2762416151 phases=1 bus1=node_2762416151.4 bus2=node_2762416151.0 R=0.5 X=0
New Reactor.NEUTRO_node_2779176086 phases=1 bus1=node_2779176086.4 bus2=node_2779176086.0 R=0.5 X=0
New Reactor.NEUTRO_node_2785187357 phases=1 bus1=node_2785187357.4 bus2=node_2785187357.0 R=0.5 X=0
New Reactor.NEUTRO_node_2798490019 phases=1 bus1=node_2798490019.4 bus2=node_2798490019.0 R=0.5 X=0
New Reactor.NEUTRO_node_2917070289 phases=1 bus1=node_2917070289.4 bus2=node_2917070289.0 R=0.5 X=0
New Reactor.NEUTRO_node_2922174650 phases=1 bus1=node_2922174650.4 bus2=node_2922174650.0 R=0.5 X=0
New Reactor.NEUTRO_node_2988553309 phases=1 bus1=node_2988553309.4 bus2=node_2988553309.0 R=0.5 X=0
New Reactor.NEUTRO_node_407379184 phases=1 bus1=node_407379184.4 bus2=node_407379184.0 R=0.5 X=0
New Reactor.NEUTRO_node_407793908 phases=1 bus1=node_407793908.4 bus2=node_407793908.0 R=0.5 X=0
New Reactor.NEUTRO_node_408416428 phases=1 bus1=node_408416428.4 bus2=node_408416428.0 R=0.5 X=0
New Reactor.NEUTRO_node_408417040 phases=1 bus1=node_408417040.4 bus2=node_408417040.0 R=0.5 X=0
New Reactor.NEUTRO_node_408417154 phases=1 bus1=node_408417154.4 bus2=node_408417154.0 R=0.5 X=0
New Reactor.NEUTRO_node_408795172 phases=1 bus1=node_408795172.4 bus2=node_408795172.0 R=0.5 X=0
New Reactor.NEUTRO_node_408967820 phases=1 bus1=node_408967820.4 bus2=node_408967820.0 R=0.5 X=0
New Reactor.NEUTRO_node_409023068 phases=1 bus1=node_409023068.4 bus2=node_409023068.0 R=0.5 X=0
New Reactor.NEUTRO_node_409023641 phases=1 bus1=node_409023641.4 bus2=node_409023641.0 R=0.5 X=0
New Reactor.NEUTRO_node_409023926 phases=1 bus1=node_409023926.4 bus2=node_409023926.0 R=0.5 X=0
New Reactor.NEUTRO_node_409222840 phases=1 bus1=node_409222840.4 bus2=node_409222840.0 R=0.5 X=0
New Reactor.NEUTRO_node_409224598 phases=1 bus1=node_409224598.4 bus2=node_409224598.0 R=0.5 X=0
New Reactor.NEUTRO_node_411819453 phases=1 bus1=node_411819453.4 bus2=node_411819453.0 R=0.5 X=0
New Reactor.NEUTRO_node_411819570 phases=1 bus1=node_411819570.4 bus2=node_411819570.0 R=0.5 X=0
New Reactor.NEUTRO_node_411846390 phases=1 bus1=node_411846390.4 bus2=node_411846390.0 R=0.5 X=0
New Reactor.NEUTRO_node_411846393 phases=1 bus1=node_411846393.4 bus2=node_411846393.0 R=0.5 X=0
New Reactor.NEUTRO_node_411846441 phases=1 bus1=node_411846441.4 bus2=node_411846441.0 R=0.5 X=0
New Reactor.NEUTRO_node_411847020 phases=1 bus1=node_411847020.4 bus2=node_411847020.0 R=0.5 X=0
New Reactor.NEUTRO_node_411847035 phases=1 bus1=node_411847035.4 bus2=node_411847035.0 R=0.5 X=0
New Reactor.NEUTRO_node_411847068 phases=1 bus1=node_411847068.4 bus2=node_411847068.0 R=0.5 X=0
New Reactor.NEUTRO_node_411847158 phases=1 bus1=node_411847158.4 bus2=node_411847158.0 R=0.5 X=0
New Reactor.NEUTRO_node_411847251 phases=1 bus1=node_411847251.4 bus2=node_411847251.0 R=0.5 X=0
New Reactor.NEUTRO_node_411847317 phases=1 bus1=node_411847317.4 bus2=node_411847317.0 R=0.5 X=0
New Reactor.NEUTRO_node_411847320 phases=1 bus1=node_411847320.4 bus2=node_411847320.0 R=0.5 X=0
New Reactor.NEUTRO_node_411848145 phases=1 bus1=node_411848145.4 bus2=node_411848145.0 R=0.5 X=0
New Reactor.NEUTRO_node_411848148 phases=1 bus1=node_411848148.4 bus2=node_411848148.0 R=0.5 X=0
New Reactor.NEUTRO_node_411848154 phases=1 bus1=node_411848154.4 bus2=node_411848154.0 R=0.5 X=0
New Reactor.NEUTRO_node_411848232 phases=1 bus1=node_411848232.4 bus2=node_411848232.0 R=0.5 X=0
New Reactor.NEUTRO_node_411848238 phases=1 bus1=node_411848238.4 bus2=node_411848238.0 R=0.5 X=0
New Reactor.NEUTRO_node_411848241 phases=1 bus1=node_411848241.4 bus2=node_411848241.0 R=0.5 X=0
New Reactor.NEUTRO_node_412089451 phases=1 bus1=node_412089451.4 bus2=node_412089451.0 R=0.5 X=0
New Reactor.NEUTRO_node_412089625 phases=1 bus1=node_412089625.4 bus2=node_412089625.0 R=0.5 X=0
New Reactor.NEUTRO_node_412114449 phases=1 bus1=node_412114449.4 bus2=node_412114449.0 R=0.5 X=0
New Reactor.NEUTRO_node_412115439 phases=1 bus1=node_412115439.4 bus2=node_412115439.0 R=0.5 X=0
New Reactor.NEUTRO_node_412115457 phases=1 bus1=node_412115457.4 bus2=node_412115457.0 R=0.5 X=0
New Reactor.NEUTRO_node_412115559 phases=1 bus1=node_412115559.4 bus2=node_412115559.0 R=0.5 X=0
New Reactor.NEUTRO_node_412116291 phases=1 bus1=node_412116291.4 bus2=node_412116291.0 R=0.5 X=0
New Reactor.NEUTRO_node_412116294 phases=1 bus1=node_412116294.4 bus2=node_412116294.0 R=0.5 X=0
New Reactor.NEUTRO_node_412125533 phases=1 bus1=node_412125533.4 bus2=node_412125533.0 R=0.5 X=0
New Reactor.NEUTRO_node_412125614 phases=1 bus1=node_412125614.4 bus2=node_412125614.0 R=0.5 X=0
New Reactor.NEUTRO_node_412126496 phases=1 bus1=node_412126496.4 bus2=node_412126496.0 R=0.5 X=0
New Reactor.NEUTRO_node_412126940 phases=1 bus1=node_412126940.4 bus2=node_412126940.0 R=0.5 X=0
New Reactor.NEUTRO_node_412126943 phases=1 bus1=node_412126943.4 bus2=node_412126943.0 R=0.5 X=0
New Reactor.NEUTRO_node_412196742 phases=1 bus1=node_412196742.4 bus2=node_412196742.0 R=0.5 X=0
New Reactor.NEUTRO_node_412196937 phases=1 bus1=node_412196937.4 bus2=node_412196937.0 R=0.5 X=0
New Reactor.NEUTRO_node_412303070 phases=1 bus1=node_412303070.4 bus2=node_412303070.0 R=0.5 X=0
New Reactor.NEUTRO_node_412303073 phases=1 bus1=node_412303073.4 bus2=node_412303073.0 R=0.5 X=0
New Reactor.NEUTRO_node_412303079 phases=1 bus1=node_412303079.4 bus2=node_412303079.0 R=0.5 X=0
New Reactor.NEUTRO_node_412304159 phases=1 bus1=node_412304159.4 bus2=node_412304159.0 R=0.5 X=0
New Reactor.NEUTRO_node_412304624 phases=1 bus1=node_412304624.4 bus2=node_412304624.0 R=0.5 X=0
New Reactor.NEUTRO_node_412304666 phases=1 bus1=node_412304666.4 bus2=node_412304666.0 R=0.5 X=0
New Reactor.NEUTRO_node_412327219 phases=1 bus1=node_412327219.4 bus2=node_412327219.0 R=0.5 X=0
New Reactor.NEUTRO_node_412357246 phases=1 bus1=node_412357246.4 bus2=node_412357246.0 R=0.5 X=0
New Reactor.NEUTRO_node_412378994 phases=1 bus1=node_412378994.4 bus2=node_412378994.0 R=0.5 X=0
New Reactor.NEUTRO_node_412396913 phases=1 bus1=node_412396913.4 bus2=node_412396913.0 R=0.5 X=0
New Reactor.NEUTRO_node_412397300 phases=1 bus1=node_412397300.4 bus2=node_412397300.0 R=0.5 X=0
New Reactor.NEUTRO_node_412426547 phases=1 bus1=node_412426547.4 bus2=node_412426547.0 R=0.5 X=0
New Reactor.NEUTRO_node_412426580 phases=1 bus1=node_412426580.4 bus2=node_412426580.0 R=0.5 X=0
New Reactor.NEUTRO_node_413993477 phases=1 bus1=node_413993477.4 bus2=node_413993477.0 R=0.5 X=0
New Reactor.NEUTRO_node_413993480 phases=1 bus1=node_413993480.4 bus2=node_413993480.0 R=0.5 X=0
New Reactor.NEUTRO_node_413993483 phases=1 bus1=node_413993483.4 bus2=node_413993483.0 R=0.5 X=0
New Reactor.NEUTRO_node_413993486 phases=1 bus1=node_413993486.4 bus2=node_413993486.0 R=0.5 X=0
New Reactor.NEUTRO_node_413993489 phases=1 bus1=node_413993489.4 bus2=node_413993489.0 R=0.5 X=0
New Reactor.NEUTRO_node_413993741 phases=1 bus1=node_413993741.4 bus2=node_413993741.0 R=0.5 X=0
New Reactor.NEUTRO_node_413993744 phases=1 bus1=node_413993744.4 bus2=node_413993744.0 R=0.5 X=0
New Reactor.NEUTRO_node_413993747 phases=1 bus1=node_413993747.4 bus2=node_413993747.0 R=0.5 X=0
New Reactor.NEUTRO_node_413995019 phases=1 bus1=node_413995019.4 bus2=node_413995019.0 R=0.5 X=0
New Reactor.NEUTRO_node_413995022 phases=1 bus1=node_413995022.4 bus2=node_413995022.0 R=0.5 X=0
New Reactor.NEUTRO_node_413995025 phases=1 bus1=node_413995025.4 bus2=node_413995025.0 R=0.5 X=0
New Reactor.NEUTRO_node_413995412 phases=1 bus1=node_413995412.4 bus2=node_413995412.0 R=0.5 X=0
New Reactor.NEUTRO_node_413995415 phases=1 bus1=node_413995415.4 bus2=node_413995415.0 R=0.5 X=0
New Reactor.NEUTRO_node_413995418 phases=1 bus1=node_413995418.4 bus2=node_413995418.0 R=0.5 X=0
New Reactor.NEUTRO_node_413995421 phases=1 bus1=node_413995421.4 bus2=node_413995421.0 R=0.5 X=0
New Reactor.NEUTRO_node_413997113 phases=1 bus1=node_413997113.4 bus2=node_413997113.0 R=0.5 X=0
New Reactor.NEUTRO_node_413997116 phases=1 bus1=node_413997116.4 bus2=node_413997116.0 R=0.5 X=0
New Reactor.NEUTRO_node_413997119 phases=1 bus1=node_413997119.4 bus2=node_413997119.0 R=0.5 X=0
New Reactor.NEUTRO_node_413997122 phases=1 bus1=node_413997122.4 bus2=node_413997122.0 R=0.5 X=0
New Reactor.NEUTRO_node_413997125 phases=1 bus1=node_413997125.4 bus2=node_413997125.0 R=0.5 X=0
New Reactor.NEUTRO_node_413997128 phases=1 bus1=node_413997128.4 bus2=node_413997128.0 R=0.5 X=0
New Reactor.NEUTRO_node_413997305 phases=1 bus1=node_413997305.4 bus2=node_413997305.0 R=0.5 X=0
New Reactor.NEUTRO_node_413997311 phases=1 bus1=node_413997311.4 bus2=node_413997311.0 R=0.5 X=0
New Reactor.NEUTRO_node_413997314 phases=1 bus1=node_413997314.4 bus2=node_413997314.0 R=0.5 X=0
...
